/*--------------------------------*- C++ -*----------------------------------*\
| =========                 |                                                 |
| \\      /  F ield         | OpenFOAM: The Open Source CFD Toolbox           |
|  \\    /   O peration     | Version:  v2006                                 |
|   \\  /    A nd           | Website:  www.openfoam.com                      |
|    \\/     M anipulation  |                                                 |
\*---------------------------------------------------------------------------*/
FoamFile
{
    version     2.0;
    format      ascii;
    class       polyBoundaryMesh;
    location    "constant/polyMesh";
    object      boundary;
}
// * * * * * * * * * * * * * * * * * * * * * * * * * * * * * * * * * * * * * //

6
(
    septal
    {
        type            wall;
        inGroups        1(wall);
        nFaces          7808;
        startFace       624664;
    }
    lateral
    {
        type            wall;
        inGroups        1(wall);
        nFaces          10752;
        startFace       632472;
    }
    nostril
    {
        type            patch;
        physicalType    patch;
        nFaces          256;
        startFace       643224;
    }
    sides
    {
        type            wall;
        inGroups        1(wall);
        nFaces          6272;
        startFace       643480;
    }
    nasopharynx
    {
        type            patch;
        physicalType    patch;
        nFaces          1024;
        startFace       649752;
    }
    turbinates
    {
        type            wall;
        inGroups        1(wall);
        nFaces          13568;
        startFace       650776;
    }
)

// ************************************************************************* //
